All Baltic diags
1 1 1 0 0 0
"ice_model_AGE", 0, "seconds", 1, "seconds","time"
"ice_model_ALB", 0, "seconds", 1, "seconds","time"
"ice_model_BHEAT", 0, "seconds", 1, "seconds","time"
"ice_model_BMELT", 0, "seconds", 1, "seconds","time"
"ice_model_BSNK", 0, "seconds", 1, "seconds","time"
"ice_model_CALVING", 0, "seconds", 1, "seconds","time"
"ice_model_CALVING_HFLX", 0, "seconds", 1, "seconds","time"
"ice_model_CI_hf", 0, "seconds", 1, "seconds","time"
"ice_model_CI_proj", 0, "seconds", 1, "seconds","time"
"ice_model_CI_tot", 0, "seconds", 1, "seconds","time"
"ice_model_CN", 0, "seconds", 1, "seconds","time"
"ice_model_E2MELT", 0, "seconds", 1, "seconds","time"
"ice_model_EVAP", 0, "seconds", 1, "seconds","time"
"ice_model_EXT", 0, "seconds", 1, "seconds","time"
"ice_model_FA_X", 0, "seconds", 1, "seconds","time"
"ice_model_FA_Y", 0, "seconds", 1, "seconds","time"
"ice_model_FC_X", 0, "seconds", 1, "seconds","time"
"ice_model_FC_Y", 0, "seconds", 1, "seconds","time"
"ice_model_FI_X", 0, "seconds", 1, "seconds","time"
"ice_model_FI_Y", 0, "seconds", 1, "seconds","time"
"ice_model_FI_d_X", 0, "seconds", 1, "seconds","time"
"ice_model_FI_d_Y", 0, "seconds", 1, "seconds","time"
"ice_model_FI_s_X", 0, "seconds", 1, "seconds","time"
"ice_model_FI_s_Y", 0, "seconds", 1, "seconds","time"
"ice_model_FI_t_X", 0, "seconds", 1, "seconds","time"
"ice_model_FI_t_Y", 0, "seconds", 1, "seconds","time"
"ice_model_FP_X", 0, "seconds", 1, "seconds","time"
"ice_model_FP_Y", 0, "seconds", 1, "seconds","time"
"ice_model_FRAZIL", 0, "seconds", 1, "seconds","time"
"ice_model_FW_X", 0, "seconds", 1, "seconds","time"
"ice_model_FW_Y", 0, "seconds", 1, "seconds","time"
"ice_model_HI", 0, "seconds", 1, "seconds","time"
"ice_model_HS", 0, "seconds", 1, "seconds","time"
"ice_model_IX_TRANS", 0, "seconds", 1, "seconds","time"
"ice_model_IY_TRANS", 0, "seconds", 1, "seconds","time"
"ice_model_LH", 0, "seconds", 1, "seconds","time"
"ice_model_LSNK", 0, "seconds", 1, "seconds","time"
"ice_model_LSRC", 0, "seconds", 1, "seconds","time"
"ice_model_LW", 0, "seconds", 1, "seconds","time"
"ice_model_LWDN", 0, "seconds", 1, "seconds","time"
"ice_model_MI", 0, "seconds", 1, "seconds","time"
"ice_model_MIB", 0, "seconds", 1, "seconds","time"
"ice_model_MIS_tot", 0, "seconds", 1, "seconds","time"
"ice_model_MI_U", 0, "seconds", 1, "seconds","time"
"ice_model_MI_V", 0, "seconds", 1, "seconds","time"
"ice_model_Pfa_ui", 0, "seconds", 1, "seconds","time"
"ice_model_Pfa_vi", 0, "seconds", 1, "seconds","time"
"ice_model_RAIN", 0, "seconds", 1, "seconds","time"
"ice_model_RUNOFF", 0, "seconds", 1, "seconds","time"
"ice_model_RUNOFF_HFLX", 0, "seconds", 1, "seconds","time"
"ice_model_SALTF", 0, "seconds", 1, "seconds","time"
"ice_model_SH", 0, "seconds", 1, "seconds","time"
"ice_model_SIGI", 0, "seconds", 1, "seconds","time"
"ice_model_SIGII", 0, "seconds", 1, "seconds","time"
"ice_model_SLP", 0, "seconds", 1, "seconds","time"
"ice_model_SN2IC", 0, "seconds", 1, "seconds","time"
"ice_model_SNOWFL", 0, "seconds", 1, "seconds","time"
"ice_model_SSH", 0, "seconds", 1, "seconds","time"
"ice_model_SSS", 0, "seconds", 1, "seconds","time"
"ice_model_SST", 0, "seconds", 1, "seconds","time"
"ice_model_STRENGTH", 0, "seconds", 1, "seconds","time"
"ice_model_STRENGTH_hf", 0, "seconds", 1, "seconds","time"
"ice_model_STREN_0", 0, "seconds", 1, "seconds","time"
"ice_model_SW", 0, "seconds", 1, "seconds","time"
"ice_model_SWDN", 0, "seconds", 1, "seconds","time"
"ice_model_SW_NIR_DIF", 0, "seconds", 1, "seconds","time"
"ice_model_SW_NIR_DIR", 0, "seconds", 1, "seconds","time"
"ice_model_SW_VIS", 0, "seconds", 1, "seconds","time"
"ice_model_SW_VIS_DIF", 0, "seconds", 1, "seconds","time"
"ice_model_SW_VIS_DIR", 0, "seconds", 1, "seconds","time"
"ice_model_S_bulkice", 0, "seconds", 1, "seconds","time"
"ice_model_Sal1", 0, "seconds", 1, "seconds","time"
"ice_model_Sal2", 0, "seconds", 1, "seconds","time"
"ice_model_Sal3", 0, "seconds", 1, "seconds","time"
"ice_model_Sal4", 0, "seconds", 1, "seconds","time"
"ice_model_T1", 0, "seconds", 1, "seconds","time"
"ice_model_T2", 0, "seconds", 1, "seconds","time"
"ice_model_T3", 0, "seconds", 1, "seconds","time"
"ice_model_T4", 0, "seconds", 1, "seconds","time"
"ice_model_TMELT", 0, "seconds", 1, "seconds","time"
"ice_model_TS", 0, "seconds", 1, "seconds","time"
"ice_model_TSN", 0, "seconds", 1, "seconds","time"
"ice_model_T_bulkice", 0, "seconds", 1, "seconds","time"
"ice_model_UI", 0, "seconds", 1, "seconds","time"
"ice_model_UO", 0, "seconds", 1, "seconds","time"
"ice_model_VI", 0, "seconds", 1, "seconds","time"
"ice_model_VO", 0, "seconds", 1, "seconds","time"
"ice_model_XPRT", 0, "seconds", 1, "seconds","time"
"ice_model_alb_nir_dif", 0, "seconds", 1, "seconds","time"
"ice_model_alb_nir_dir", 0, "seconds", 1, "seconds","time"
"ice_model_alb_vis_dif", 0, "seconds", 1, "seconds","time"
"ice_model_alb_vis_dir", 0, "seconds", 1, "seconds","time"
"ice_model_coszen", 0, "seconds", 1, "seconds","time"
"ice_model_del_sh", 0, "seconds", 1, "seconds","time"
"ice_model_del_sh_min", 0, "seconds", 1, "seconds","time"
"ice_model_sh_d", 0, "seconds", 1, "seconds","time"
"ice_model_sh_d_hf", 0, "seconds", 1, "seconds","time"
"ice_model_sh_s", 0, "seconds", 1, "seconds","time"
"ice_model_sh_s_hf", 0, "seconds", 1, "seconds","time"
"ice_model_sh_t", 0, "seconds", 1, "seconds","time"
"ice_model_sh_t_hf", 0, "seconds", 1, "seconds","time"
"ice_model_sigII_hf", 0, "seconds", 1, "seconds","time"
"ice_model_sigI_hf", 0, "seconds", 1, "seconds","time"
"ice_model_str_d", 0, "seconds", 1, "seconds","time"
"ice_model_str_d_hf", 0, "seconds", 1, "seconds","time"
"ice_model_str_s", 0, "seconds", 1, "seconds","time"
"ice_model_str_s_hf", 0, "seconds", 1, "seconds","time"
"ice_model_str_t", 0, "seconds", 1, "seconds","time"
"ice_model_str_t_hf", 0, "seconds", 1, "seconds","time"
"ice_model_sw_abs_ice1", 0, "seconds", 1, "seconds","time"
"ice_model_sw_abs_ice2", 0, "seconds", 1, "seconds","time"
"ice_model_sw_abs_ice3", 0, "seconds", 1, "seconds","time"
"ice_model_sw_abs_ice4", 0, "seconds", 1, "seconds","time"
"ice_model_sw_abs_ocn", 0, "seconds", 1, "seconds","time"
"ice_model_sw_abs_sfc", 0, "seconds", 1, "seconds","time"
"ice_model_sw_abs_snow", 0, "seconds", 1, "seconds","time"
"ice_model_sw_pen", 0, "seconds", 1, "seconds","time"
"ice_model_ui_hf", 0, "seconds", 1, "seconds","time"
"ice_model_vi_hf", 0, "seconds", 1, "seconds","time"
"ocean_model_Ahh", 0, "seconds", 1, "seconds","time"
"ocean_model_Ahq", 0, "seconds", 1, "seconds","time"
"ocean_model_BTC_FA_u_E0", 0, "seconds", 1, "seconds","time"
"ocean_model_BTC_FA_u_EE", 0, "seconds", 1, "seconds","time"
"ocean_model_BTC_FA_u_W0", 0, "seconds", 1, "seconds","time"
"ocean_model_BTC_FA_u_WW", 0, "seconds", 1, "seconds","time"
"ocean_model_BTC_FA_v_N0", 0, "seconds", 1, "seconds","time"
"ocean_model_BTC_FA_v_NN", 0, "seconds", 1, "seconds","time"
"ocean_model_BTC_FA_v_S0", 0, "seconds", 1, "seconds","time"
"ocean_model_BTC_FA_v_SS", 0, "seconds", 1, "seconds","time"
"ocean_model_BTC_ubt_EE", 0, "seconds", 1, "seconds","time"
"ocean_model_BTC_ubt_WW", 0, "seconds", 1, "seconds","time"
"ocean_model_BTC_vbt_NN", 0, "seconds", 1, "seconds","time"
"ocean_model_BTC_vbt_SS", 0, "seconds", 1, "seconds","time"
"ocean_model_CAu", 0, "seconds", 1, "seconds","time"
"ocean_model_CAv", 0, "seconds", 1, "seconds","time"
"ocean_model_CFC11", 0, "seconds", 1, "seconds","time"
"ocean_model_CFC11_adx", 0, "seconds", 1, "seconds","time"
"ocean_model_CFC11_ady", 0, "seconds", 1, "seconds","time"
"ocean_model_CFC11_dfx", 0, "seconds", 1, "seconds","time"
"ocean_model_CFC11_dfy", 0, "seconds", 1, "seconds","time"
"ocean_model_CFC12", 0, "seconds", 1, "seconds","time"
"ocean_model_CFC12_adx", 0, "seconds", 1, "seconds","time"
"ocean_model_CFC12_ady", 0, "seconds", 1, "seconds","time"
"ocean_model_CFC12_dfx", 0, "seconds", 1, "seconds","time"
"ocean_model_CFC12_dfy", 0, "seconds", 1, "seconds","time"
"ocean_model_CFL_cg1", 0, "seconds", 1, "seconds","time"
"ocean_model_CFL_cg1_x", 0, "seconds", 1, "seconds","time"
"ocean_model_CFL_cg1_y", 0, "seconds", 1, "seconds","time"
"ocean_model_Chl_opac", 0, "seconds", 1, "seconds","time"
"ocean_model_Coriolis", 0, "seconds", 1, "seconds","time"
"ocean_model_CoruBT", 0, "seconds", 1, "seconds","time"
"ocean_model_CorvBT", 0, "seconds", 1, "seconds","time"
"ocean_model_Fl_itides", 0, "seconds", 1, "seconds","time"
"ocean_model_Fl_lowmode", 0, "seconds", 1, "seconds","time"
"ocean_model_FrictWork", 0, "seconds", 1, "seconds","time"
"ocean_model_FrictWorkIntz", 0, "seconds", 1, "seconds","time"
"ocean_model_GMwork", 0, "seconds", 1, "seconds","time"
"ocean_model_HMLu_visc", 0, "seconds", 1, "seconds","time"
"ocean_model_HMLv_visc", 0, "seconds", 1, "seconds","time"
"ocean_model_Heat_PmE", 0, "seconds", 1, "seconds","time"
"ocean_model_Hs_max", 0, "seconds", 1, "seconds","time"
"ocean_model_Hs_min", 0, "seconds", 1, "seconds","time"
"ocean_model_Hs_used", 0, "seconds", 1, "seconds","time"
"ocean_model_Hu_visc", 0, "seconds", 1, "seconds","time"
"ocean_model_Hv_visc", 0, "seconds", 1, "seconds","time"
"ocean_model_KE", 0, "seconds", 1, "seconds","time"
"ocean_model_KE_Coradv", 0, "seconds", 1, "seconds","time"
"ocean_model_KE_adv", 0, "seconds", 1, "seconds","time"
"ocean_model_KE_dia", 0, "seconds", 1, "seconds","time"
"ocean_model_KE_horvisc", 0, "seconds", 1, "seconds","time"
"ocean_model_KE_visc", 0, "seconds", 1, "seconds","time"
"ocean_model_KHTH_t", 0, "seconds", 1, "seconds","time"
"ocean_model_KHTH_t1", 0, "seconds", 1, "seconds","time"
"ocean_model_KHTH_u", 0, "seconds", 1, "seconds","time"
"ocean_model_KHTH_u1", 0, "seconds", 1, "seconds","time"
"ocean_model_KHTH_v", 0, "seconds", 1, "seconds","time"
"ocean_model_KHTH_v1", 0, "seconds", 1, "seconds","time"
"ocean_model_KHTR_h", 0, "seconds", 1, "seconds","time"
"ocean_model_KHTR_u", 0, "seconds", 1, "seconds","time"
"ocean_model_KHTR_v", 0, "seconds", 1, "seconds","time"
"ocean_model_Kd_BBL", 0, "seconds", 1, "seconds","time"
"ocean_model_Kd_Itidal_Work", 0, "seconds", 1, "seconds","time"
"ocean_model_Kd_Lowmode_Work", 0, "seconds", 1, "seconds","time"
"ocean_model_Kd_Nikurashin_Work", 0, "seconds", 1, "seconds","time"
"ocean_model_Kd_Work", 0, "seconds", 1, "seconds","time"
"ocean_model_Kd_effective", 0, "seconds", 1, "seconds","time"
"ocean_model_Kd_heat", 0, "seconds", 1, "seconds","time"
"ocean_model_Kd_interface", 0, "seconds", 1, "seconds","time"
"ocean_model_Kd_itides", 0, "seconds", 1, "seconds","time"
"ocean_model_Kd_layer", 0, "seconds", 1, "seconds","time"
"ocean_model_Kd_lowmode", 0, "seconds", 1, "seconds","time"
"ocean_model_Kd_salt", 0, "seconds", 1, "seconds","time"
"ocean_model_Kd_shear", 0, "seconds", 1, "seconds","time"
"ocean_model_Khh", 0, "seconds", 1, "seconds","time"
"ocean_model_Khq", 0, "seconds", 1, "seconds","time"
"ocean_model_L2u", 0, "seconds", 1, "seconds","time"
"ocean_model_L2v", 0, "seconds", 1, "seconds","time"
"ocean_model_LW", 0, "seconds", 1, "seconds","time"
"ocean_model_LwLatSens", 0, "seconds", 1, "seconds","time"
"ocean_model_LwLatSens_ga", 0, "seconds", 1, "seconds","time"
"ocean_model_MLD_003", 0, "seconds", 1, "seconds","time"
"ocean_model_MLD_0125", 0, "seconds", 1, "seconds","time"
"ocean_model_MLD_restrat", 0, "seconds", 1, "seconds","time"
"ocean_model_MLD_user", 0, "seconds", 1, "seconds","time"
"ocean_model_ML_buoy_restrat", 0, "seconds", 1, "seconds","time"
"ocean_model_MLu_restrat_time", 0, "seconds", 1, "seconds","time"
"ocean_model_MLv_restrat_time", 0, "seconds", 1, "seconds","time"
"ocean_model_N2", 0, "seconds", 1, "seconds","time"
"ocean_model_N2_b", 0, "seconds", 1, "seconds","time"
"ocean_model_N2_meanz", 0, "seconds", 1, "seconds","time"
"ocean_model_Nb", 0, "seconds", 1, "seconds","time"
"ocean_model_PE_detrain", 0, "seconds", 1, "seconds","time"
"ocean_model_PE_detrain2", 0, "seconds", 1, "seconds","time"
"ocean_model_PE_to_KE", 0, "seconds", 1, "seconds","time"
"ocean_model_PFu", 0, "seconds", 1, "seconds","time"
"ocean_model_PFuBT", 0, "seconds", 1, "seconds","time"
"ocean_model_PFv", 0, "seconds", 1, "seconds","time"
"ocean_model_PFvBT", 0, "seconds", 1, "seconds","time"
"ocean_model_PRCmE", 0, "seconds", 1, "seconds","time"
"ocean_model_PRCmE_ga", 0, "seconds", 1, "seconds","time"
"ocean_model_PV", 0, "seconds", 1, "seconds","time"
"ocean_model_Polzin_decay_scale", 0, "seconds", 1, "seconds","time"
"ocean_model_Polzin_decay_scale_scaled", 0, "seconds", 1, "seconds","time"
"ocean_model_RV", 0, "seconds", 1, "seconds","time"
"ocean_model_Rayleigh_u", 0, "seconds", 1, "seconds","time"
"ocean_model_Rayleigh_v", 0, "seconds", 1, "seconds","time"
"ocean_model_Rd1", 0, "seconds", 1, "seconds","time"
"ocean_model_Rd_dx", 0, "seconds", 1, "seconds","time"
"ocean_model_Res_fn", 0, "seconds", 1, "seconds","time"
"ocean_model_Rho_cv", 0, "seconds", 1, "seconds","time"
"ocean_model_Rml", 0, "seconds", 1, "seconds","time"
"ocean_model_SN_u", 0, "seconds", 1, "seconds","time"
"ocean_model_SN_v", 0, "seconds", 1, "seconds","time"
"ocean_model_SSH", 0, "seconds", 1, "seconds","time"
"ocean_model_SSH_inst", 0, "seconds", 1, "seconds","time"
"ocean_model_SSS", 0, "seconds", 1, "seconds","time"
"ocean_model_SSS_sq", 0, "seconds", 1, "seconds","time"
"ocean_model_SST", 0, "seconds", 1, "seconds","time"
"ocean_model_SST_sq", 0, "seconds", 1, "seconds","time"
"ocean_model_SSU", 0, "seconds", 1, "seconds","time"
"ocean_model_SSV", 0, "seconds", 1, "seconds","time"
"ocean_model_SW", 0, "seconds", 1, "seconds","time"
"ocean_model_SW_pen", 0, "seconds", 1, "seconds","time"
"ocean_model_SW_vis_pen", 0, "seconds", 1, "seconds","time"
"ocean_model_S_advection_xy", 0, "seconds", 1, "seconds","time"
"ocean_model_S_advection_xy_2d", 0, "seconds", 1, "seconds","time"
"ocean_model_S_adx", 0, "seconds", 1, "seconds","time"
"ocean_model_S_adx_2d", 0, "seconds", 1, "seconds","time"
"ocean_model_S_ady", 0, "seconds", 1, "seconds","time"
"ocean_model_S_ady_2d", 0, "seconds", 1, "seconds","time"
"ocean_model_S_diffx", 0, "seconds", 1, "seconds","time"
"ocean_model_S_diffx_2d", 0, "seconds", 1, "seconds","time"
"ocean_model_S_diffy", 0, "seconds", 1, "seconds","time"
"ocean_model_S_diffy_2d", 0, "seconds", 1, "seconds","time"
"ocean_model_S_tendency", 0, "seconds", 1, "seconds","time"
"ocean_model_Sflx_dia_adv", 0, "seconds", 1, "seconds","time"
"ocean_model_Sflx_dia_diff", 0, "seconds", 1, "seconds","time"
"ocean_model_Sh_tendency", 0, "seconds", 1, "seconds","time"
"ocean_model_Sh_tendency_2d", 0, "seconds", 1, "seconds","time"
"ocean_model_TKE_RiBulk", 0, "seconds", 1, "seconds","time"
"ocean_model_TKE_conv", 0, "seconds", 1, "seconds","time"
"ocean_model_TKE_conv_decay", 0, "seconds", 1, "seconds","time"
"ocean_model_TKE_conv_s2", 0, "seconds", 1, "seconds","time"
"ocean_model_TKE_itidal", 0, "seconds", 1, "seconds","time"
"ocean_model_TKE_mech_decay", 0, "seconds", 1, "seconds","time"
"ocean_model_TKE_mixing", 0, "seconds", 1, "seconds","time"
"ocean_model_TKE_pen_SW", 0, "seconds", 1, "seconds","time"
"ocean_model_TKE_shear", 0, "seconds", 1, "seconds","time"
"ocean_model_TKE_tidal", 0, "seconds", 1, "seconds","time"
"ocean_model_TKE_to_Kd", 0, "seconds", 1, "seconds","time"
"ocean_model_TKE_wind", 0, "seconds", 1, "seconds","time"
"ocean_model_T_advection_xy", 0, "seconds", 1, "seconds","time"
"ocean_model_T_advection_xy_2d", 0, "seconds", 1, "seconds","time"
"ocean_model_T_adx", 0, "seconds", 1, "seconds","time"
"ocean_model_T_adx_2d", 0, "seconds", 1, "seconds","time"
"ocean_model_T_ady", 0, "seconds", 1, "seconds","time"
"ocean_model_T_ady_2d", 0, "seconds", 1, "seconds","time"
"ocean_model_T_diffx", 0, "seconds", 1, "seconds","time"
"ocean_model_T_diffx_2d", 0, "seconds", 1, "seconds","time"
"ocean_model_T_diffy", 0, "seconds", 1, "seconds","time"
"ocean_model_T_diffy_2d", 0, "seconds", 1, "seconds","time"
"ocean_model_T_tendency", 0, "seconds", 1, "seconds","time"
"ocean_model_Tflx_dia_adv", 0, "seconds", 1, "seconds","time"
"ocean_model_Tflx_dia_diff", 0, "seconds", 1, "seconds","time"
"ocean_model_Th_tendency", 0, "seconds", 1, "seconds","time"
"ocean_model_Th_tendency_2d", 0, "seconds", 1, "seconds","time"
"ocean_model_age", 0, "seconds", 1, "seconds","time"
"ocean_model_age_adx", 0, "seconds", 1, "seconds","time"
"ocean_model_age_ady", 0, "seconds", 1, "seconds","time"
"ocean_model_age_dfx", 0, "seconds", 1, "seconds","time"
"ocean_model_age_dfy", 0, "seconds", 1, "seconds","time"
"ocean_model_area_t", 0, "seconds", 1, "seconds","time"
"ocean_model_areacello", 0, "seconds", 1, "seconds","time"
"ocean_model_au_visc", 0, "seconds", 1, "seconds","time"
"ocean_model_av_visc", 0, "seconds", 1, "seconds","time"
"ocean_model_ave_evs", 0, "seconds", 1, "seconds","time"
"ocean_model_ave_hfds", 0, "seconds", 1, "seconds","time"
"ocean_model_ave_hfls", 0, "seconds", 1, "seconds","time"
"ocean_model_ave_hfss", 0, "seconds", 1, "seconds","time"
"ocean_model_ave_pr", 0, "seconds", 1, "seconds","time"
"ocean_model_ave_prsn", 0, "seconds", 1, "seconds","time"
"ocean_model_ave_rlntds", 0, "seconds", 1, "seconds","time"
"ocean_model_ave_rsntds", 0, "seconds", 1, "seconds","time"
"ocean_model_ave_wfo", 0, "seconds", 1, "seconds","time"
"ocean_model_bbl_thick_u", 0, "seconds", 1, "seconds","time"
"ocean_model_bbl_thick_v", 0, "seconds", 1, "seconds","time"
"ocean_model_cg1", 0, "seconds", 1, "seconds","time"
"ocean_model_col_height", 0, "seconds", 1, "seconds","time"
"ocean_model_col_mass", 0, "seconds", 1, "seconds","time"
"ocean_model_dKE_dt", 0, "seconds", 1, "seconds","time"
"ocean_model_deficit_ratio", 0, "seconds", 1, "seconds","time"
"ocean_model_depth_ocean", 0, "seconds", 1, "seconds","time"
"ocean_model_deptho", 0, "seconds", 1, "seconds","time"
"ocean_model_dhdt", 0, "seconds", 1, "seconds","time"
"ocean_model_diff_work", 0, "seconds", 1, "seconds","time"
"ocean_model_diffu", 0, "seconds", 1, "seconds","time"
"ocean_model_diffv", 0, "seconds", 1, "seconds","time"
"ocean_model_difmxybo", 0, "seconds", 1, "seconds","time"
"ocean_model_difmxylo", 0, "seconds", 1, "seconds","time"
"ocean_model_diftrblo", 0, "seconds", 1, "seconds","time"
"ocean_model_diftrelo", 0, "seconds", 1, "seconds","time"
"ocean_model_difvho", 0, "seconds", 1, "seconds","time"
"ocean_model_difvso", 0, "seconds", 1, "seconds","time"
"ocean_model_dispkexyfo", 0, "seconds", 1, "seconds","time"
"ocean_model_du_dt_visc", 0, "seconds", 1, "seconds","time"
"ocean_model_dudt", 0, "seconds", 1, "seconds","time"
"ocean_model_dudt_dia", 0, "seconds", 1, "seconds","time"
"ocean_model_dv_dt_visc", 0, "seconds", 1, "seconds","time"
"ocean_model_dvdt", 0, "seconds", 1, "seconds","time"
"ocean_model_dvdt_dia", 0, "seconds", 1, "seconds","time"
"ocean_model_dxCu", 0, "seconds", 1, "seconds","time"
"ocean_model_dxCv", 0, "seconds", 1, "seconds","time"
"ocean_model_dxt", 0, "seconds", 1, "seconds","time"
"ocean_model_dyCu", 0, "seconds", 1, "seconds","time"
"ocean_model_dyCv", 0, "seconds", 1, "seconds","time"
"ocean_model_dyt", 0, "seconds", 1, "seconds","time"
"ocean_model_e", 0, "seconds", 1, "seconds","time"
"ocean_model_e_D", 0, "seconds", 1, "seconds","time"
"ocean_model_e_predia", 0, "seconds", 1, "seconds","time"
"ocean_model_ea", 0, "seconds", 1, "seconds","time"
"ocean_model_eb", 0, "seconds", 1, "seconds","time"
"ocean_model_eta_bt", 0, "seconds", 1, "seconds","time"
"ocean_model_eta_cor", 0, "seconds", 1, "seconds","time"
"ocean_model_eta_hifreq", 0, "seconds", 1, "seconds","time"
"ocean_model_eta_pred_hifreq", 0, "seconds", 1, "seconds","time"
"ocean_model_eta_st", 0, "seconds", 1, "seconds","time"
"ocean_model_evap", 0, "seconds", 1, "seconds","time"
"ocean_model_evap_ga", 0, "seconds", 1, "seconds","time"
"ocean_model_evs", 0, "seconds", 1, "seconds","time"
"ocean_model_ficeberg", 0, "seconds", 1, "seconds","time"
"ocean_model_fprec", 0, "seconds", 1, "seconds","time"
"ocean_model_fprec_ga", 0, "seconds", 1, "seconds","time"
"ocean_model_frazil", 0, "seconds", 1, "seconds","time"
"ocean_model_frazil_heat_tendency", 0, "seconds", 1, "seconds","time"
"ocean_model_frazil_heat_tendency_2d", 0, "seconds", 1, "seconds","time"
"ocean_model_frazil_temp_tendency", 0, "seconds", 1, "seconds","time"
"ocean_model_frhatu", 0, "seconds", 1, "seconds","time"
"ocean_model_frhatu1", 0, "seconds", 1, "seconds","time"
"ocean_model_frhatv", 0, "seconds", 1, "seconds","time"
"ocean_model_frhatv1", 0, "seconds", 1, "seconds","time"
"ocean_model_friver", 0, "seconds", 1, "seconds","time"
"ocean_model_frunoff", 0, "seconds", 1, "seconds","time"
"ocean_model_gKEu", 0, "seconds", 1, "seconds","time"
"ocean_model_gKEv", 0, "seconds", 1, "seconds","time"
"ocean_model_geo_heat", 0, "seconds", 1, "seconds","time"
"ocean_model_geolat", 0, "seconds", 1, "seconds","time"
"ocean_model_geolat_c", 0, "seconds", 1, "seconds","time"
"ocean_model_geolat_u", 0, "seconds", 1, "seconds","time"
"ocean_model_geolat_v", 0, "seconds", 1, "seconds","time"
"ocean_model_geolon", 0, "seconds", 1, "seconds","time"
"ocean_model_geolon_c", 0, "seconds", 1, "seconds","time"
"ocean_model_geolon_u", 0, "seconds", 1, "seconds","time"
"ocean_model_geolon_v", 0, "seconds", 1, "seconds","time"
"ocean_model_gtot_e", 0, "seconds", 1, "seconds","time"
"ocean_model_gtot_n", 0, "seconds", 1, "seconds","time"
"ocean_model_gtot_s", 0, "seconds", 1, "seconds","time"
"ocean_model_gtot_w", 0, "seconds", 1, "seconds","time"
"ocean_model_h", 0, "seconds", 1, "seconds","time"
"ocean_model_h_ML", 0, "seconds", 1, "seconds","time"
"ocean_model_h_miss_ML", 0, "seconds", 1, "seconds","time"
"ocean_model_h_predia", 0, "seconds", 1, "seconds","time"
"ocean_model_h_rho", 0, "seconds", 1, "seconds","time"
"ocean_model_heat_content_cond", 0, "seconds", 1, "seconds","time"
"ocean_model_heat_content_fprec", 0, "seconds", 1, "seconds","time"
"ocean_model_heat_content_frunoff", 0, "seconds", 1, "seconds","time"
"ocean_model_heat_content_lprec", 0, "seconds", 1, "seconds","time"
"ocean_model_heat_content_lrunoff", 0, "seconds", 1, "seconds","time"
"ocean_model_heat_content_massin", 0, "seconds", 1, "seconds","time"
"ocean_model_heat_content_massout", 0, "seconds", 1, "seconds","time"
"ocean_model_heat_content_surfwater", 0, "seconds", 1, "seconds","time"
"ocean_model_heat_content_vprec", 0, "seconds", 1, "seconds","time"
"ocean_model_hfds", 0, "seconds", 1, "seconds","time"
"ocean_model_hfevapds", 0, "seconds", 1, "seconds","time"
"ocean_model_hfgeou", 0, "seconds", 1, "seconds","time"
"ocean_model_hfibthermds", 0, "seconds", 1, "seconds","time"
"ocean_model_hfls", 0, "seconds", 1, "seconds","time"
"ocean_model_hfrainds", 0, "seconds", 1, "seconds","time"
"ocean_model_hfrunoffds", 0, "seconds", 1, "seconds","time"
"ocean_model_hfsifrazil", 0, "seconds", 1, "seconds","time"
"ocean_model_hfsnthermds", 0, "seconds", 1, "seconds","time"
"ocean_model_hfss", 0, "seconds", 1, "seconds","time"
"ocean_model_internal_heat", 0, "seconds", 1, "seconds","time"
"ocean_model_kv_bbl_u", 0, "seconds", 1, "seconds","time"
"ocean_model_kv_bbl_v", 0, "seconds", 1, "seconds","time"
"ocean_model_lat_ga", 0, "seconds", 1, "seconds","time"
"ocean_model_latent", 0, "seconds", 1, "seconds","time"
"ocean_model_latent_evap", 0, "seconds", 1, "seconds","time"
"ocean_model_latent_fprec_diag", 0, "seconds", 1, "seconds","time"
"ocean_model_latent_frunoff", 0, "seconds", 1, "seconds","time"
"ocean_model_lprec", 0, "seconds", 1, "seconds","time"
"ocean_model_lprec_ga", 0, "seconds", 1, "seconds","time"
"ocean_model_lrunoff", 0, "seconds", 1, "seconds","time"
"ocean_model_lw_ga", 0, "seconds", 1, "seconds","time"
"ocean_model_mass_wt", 0, "seconds", 1, "seconds","time"
"ocean_model_masscello", 0, "seconds", 1, "seconds","time"
"ocean_model_masso", 0, "seconds", 1, "seconds","time"
"ocean_model_maxTKE", 0, "seconds", 1, "seconds","time"
"ocean_model_mlotst", 0, "seconds", 1, "seconds","time"
"ocean_model_mlotstsq", 0, "seconds", 1, "seconds","time"
"ocean_model_net_fresh_water_global_adjustment", 0, "seconds", 1, "seconds","time"
"ocean_model_net_fresh_water_global_scaling", 0, "seconds", 1, "seconds","time"
"ocean_model_net_heat_coupler", 0, "seconds", 1, "seconds","time"
"ocean_model_net_heat_coupler_ga", 0, "seconds", 1, "seconds","time"
"ocean_model_net_heat_surface", 0, "seconds", 1, "seconds","time"
"ocean_model_net_heat_surface_ga", 0, "seconds", 1, "seconds","time"
"ocean_model_net_massin", 0, "seconds", 1, "seconds","time"
"ocean_model_net_massout", 0, "seconds", 1, "seconds","time"
"ocean_model_neutral_slope_x", 0, "seconds", 1, "seconds","time"
"ocean_model_neutral_slope_y", 0, "seconds", 1, "seconds","time"
"ocean_model_nkml_visc_u", 0, "seconds", 1, "seconds","time"
"ocean_model_nkml_visc_v", 0, "seconds", 1, "seconds","time"
"ocean_model_obvfsq", 0, "seconds", 1, "seconds","time"
"ocean_model_opac_1", 0, "seconds", 1, "seconds","time"
"ocean_model_opac_2", 0, "seconds", 1, "seconds","time"
"ocean_model_opac_3", 0, "seconds", 1, "seconds","time"
"ocean_model_opottempmint", 0, "seconds", 1, "seconds","time"
"ocean_model_opottemptend", 0, "seconds", 1, "seconds","time"
"ocean_model_opottemptend_2d", 0, "seconds", 1, "seconds","time"
"ocean_model_osalttend", 0, "seconds", 1, "seconds","time"
"ocean_model_osalttend_2d", 0, "seconds", 1, "seconds","time"
"ocean_model_p_surf", 0, "seconds", 1, "seconds","time"
"ocean_model_pbo", 0, "seconds", 1, "seconds","time"
"ocean_model_pr", 0, "seconds", 1, "seconds","time"
"ocean_model_precip", 0, "seconds", 1, "seconds","time"
"ocean_model_precip_ga", 0, "seconds", 1, "seconds","time"
"ocean_model_prsn", 0, "seconds", 1, "seconds","time"
"ocean_model_pso", 0, "seconds", 1, "seconds","time"
"ocean_model_rhoinsitu", 0, "seconds", 1, "seconds","time"
"ocean_model_rhopot0", 0, "seconds", 1, "seconds","time"
"ocean_model_rhopot2", 0, "seconds", 1, "seconds","time"
"ocean_model_rlntds", 0, "seconds", 1, "seconds","time"
"ocean_model_rsntds", 0, "seconds", 1, "seconds","time"
"ocean_model_rvxu", 0, "seconds", 1, "seconds","time"
"ocean_model_rvxv", 0, "seconds", 1, "seconds","time"
"ocean_model_salt", 0, "seconds", 1, "seconds","time"
"ocean_model_salt_deficit", 0, "seconds", 1, "seconds","time"
"ocean_model_salt_flux", 0, "seconds", 1, "seconds","time"
"ocean_model_salt_flux_global_restoring_adjustment", 0, "seconds", 1, "seconds","time"
"ocean_model_salt_flux_global_restoring_scaling", 0, "seconds", 1, "seconds","time"
"ocean_model_salt_flux_in", 0, "seconds", 1, "seconds","time"
"ocean_model_salt_flux_restore", 0, "seconds", 1, "seconds","time"
"ocean_model_salt_int", 0, "seconds", 1, "seconds","time"
"ocean_model_salt_layer_ave", 0, "seconds", 1, "seconds","time"
"ocean_model_salt_predia", 0, "seconds", 1, "seconds","time"
"ocean_model_sens_ga", 0, "seconds", 1, "seconds","time"
"ocean_model_sensible", 0, "seconds", 1, "seconds","time"
"ocean_model_sfdsi", 0, "seconds", 1, "seconds","time"
"ocean_model_so", 0, "seconds", 1, "seconds","time"
"ocean_model_sob", 0, "seconds", 1, "seconds","time"
"ocean_model_soga", 0, "seconds", 1, "seconds","time"
"ocean_model_somint", 0, "seconds", 1, "seconds","time"
"ocean_model_sos", 0, "seconds", 1, "seconds","time"
"ocean_model_sosga", 0, "seconds", 1, "seconds","time"
"ocean_model_sossq", 0, "seconds", 1, "seconds","time"
"ocean_model_speed", 0, "seconds", 1, "seconds","time"
"ocean_model_ssh_ga", 0, "seconds", 1, "seconds","time"
"ocean_model_sss_global", 0, "seconds", 1, "seconds","time"
"ocean_model_sst_global", 0, "seconds", 1, "seconds","time"
"ocean_model_subML_N2", 0, "seconds", 1, "seconds","time"
"ocean_model_sw_ga", 0, "seconds", 1, "seconds","time"
"ocean_model_tauuo", 0, "seconds", 1, "seconds","time"
"ocean_model_tauvo", 0, "seconds", 1, "seconds","time"
"ocean_model_taux", 0, "seconds", 1, "seconds","time"
"ocean_model_taux_bot", 0, "seconds", 1, "seconds","time"
"ocean_model_tauy", 0, "seconds", 1, "seconds","time"
"ocean_model_tauy_bot", 0, "seconds", 1, "seconds","time"
"ocean_model_temp", 0, "seconds", 1, "seconds","time"
"ocean_model_temp_int", 0, "seconds", 1, "seconds","time"
"ocean_model_temp_layer_ave", 0, "seconds", 1, "seconds","time"
"ocean_model_temp_predia", 0, "seconds", 1, "seconds","time"
"ocean_model_thetao", 0, "seconds", 1, "seconds","time"
"ocean_model_thetaoga", 0, "seconds", 1, "seconds","time"
"ocean_model_thkcello", 0, "seconds", 1, "seconds","time"
"ocean_model_tnkebto", 0, "seconds", 1, "seconds","time"
"ocean_model_tob", 0, "seconds", 1, "seconds","time"
"ocean_model_tos", 0, "seconds", 1, "seconds","time"
"ocean_model_tosga", 0, "seconds", 1, "seconds","time"
"ocean_model_tossq", 0, "seconds", 1, "seconds","time"
"ocean_model_total_LwLatSens", 0, "seconds", 1, "seconds","time"
"ocean_model_total_PRCmE", 0, "seconds", 1, "seconds","time"
"ocean_model_total_evap", 0, "seconds", 1, "seconds","time"
"ocean_model_total_evs", 0, "seconds", 1, "seconds","time"
"ocean_model_total_ficeberg", 0, "seconds", 1, "seconds","time"
"ocean_model_total_fprec", 0, "seconds", 1, "seconds","time"
"ocean_model_total_friver", 0, "seconds", 1, "seconds","time"
"ocean_model_total_frunoff", 0, "seconds", 1, "seconds","time"
"ocean_model_total_heat_content_cond", 0, "seconds", 1, "seconds","time"
"ocean_model_total_heat_content_fprec", 0, "seconds", 1, "seconds","time"
"ocean_model_total_heat_content_frunoff", 0, "seconds", 1, "seconds","time"
"ocean_model_total_heat_content_lprec", 0, "seconds", 1, "seconds","time"
"ocean_model_total_heat_content_lrunoff", 0, "seconds", 1, "seconds","time"
"ocean_model_total_heat_content_massin", 0, "seconds", 1, "seconds","time"
"ocean_model_total_heat_content_massout", 0, "seconds", 1, "seconds","time"
"ocean_model_total_heat_content_surfwater", 0, "seconds", 1, "seconds","time"
"ocean_model_total_heat_content_vprec", 0, "seconds", 1, "seconds","time"
"ocean_model_total_hfds", 0, "seconds", 1, "seconds","time"
"ocean_model_total_hfevapds", 0, "seconds", 1, "seconds","time"
"ocean_model_total_hfibthermds", 0, "seconds", 1, "seconds","time"
"ocean_model_total_hfls", 0, "seconds", 1, "seconds","time"